%mem=4GB
%chk=hexagonal.chk
# pbepbe/3-21g/auto

hexagonal.mol

0 1
C       38.47922747      20.54332898       5.00000000
C       11.04255250       0.61378243       5.00000000
C       10.85608759       1.99899901       5.00000000
C        9.55864620       2.49771021       5.00000000
C        8.38486598       1.65440847       5.00000000
C        8.53788486       0.22204176       5.00000000
C        9.10788716       3.88500390       5.00000000
C        7.66182444       3.87752634       5.00000000
C        7.25881801       2.51744264       5.00000000
C        9.86496005       5.05046352       5.00000000
C        9.20195683       6.28072860       5.00000000
C       44.56642122      19.73658416       5.00000000
C       46.87904896      20.34849720       5.00000000
C       45.54037994      20.73047550       5.00000000
C       49.23409203      20.34371987       5.00000000
C       19.46643173       0.42538965       5.00000000
C       21.96124588       0.18403087       5.00000000
C       21.94175946       1.60892003       5.00000000
C       20.76375489       2.42521950       5.00000000
C       19.51289758       1.80499807       5.00000000
C       23.08599099       2.45180635       5.00000000
C       20.02758439      11.87331467       5.00000000
C       18.60693384      11.88224620       5.00000000
C       18.13358193      10.52984776       5.00000000
C       53.12293734      13.04625185       5.00000000
C       15.90884084      11.38540438       5.00000000
C       16.75734599      10.29658967       5.00000000
C       56.55150112      19.76067850       5.00000000
C       55.57333028      20.76350136       5.00000000
C       54.22949945      20.39897068       5.00000000
C       24.45038394       0.47565542       5.00000000
C       51.87720285      20.38006909       5.00000000
C       24.35549147       1.86398765       5.00000000
C       20.70918817      13.09485594       5.00000000
C       19.97006749      14.27443984       5.00000000
C       26.90667994      19.16475911       5.00000000
C       27.88469987      18.16131312       5.00000000
C       29.22922152      18.52480525       5.00000000
C       29.66965117      19.90565993       5.00000000
C       30.42153841      17.67859557       5.00000000
C       31.58316596      18.54516081       5.00000000
C       31.08912166      19.87969620       5.00000000
C       30.51621248      16.28984792       5.00000000
C       31.78514118      15.70161380       5.00000000
C       32.93021445      16.54408470       5.00000000
C       32.91072803      17.96897385       5.00000000
C       34.10771473      15.72716210       5.00000000
C       34.85048035       6.28052089       5.00000000
C       36.27155177       6.27138166       5.00000000
C       36.74525705       7.62378010       5.00000000
C       34.16845570       5.05918733       5.00000000
C       34.90636534       3.87898031       5.00000000
C       36.35563102       3.86028643       5.00000000
C       37.09245809       5.10654517       5.00000000
C       34.43899938       2.49293289       5.00000000
C       35.60702795       1.63446833       5.00000000
C       36.74042849       2.49002495       5.00000000
C       33.13788909       1.99692191       5.00000000
C       32.93505159       0.61025136       5.00000000
C       35.43706402       0.19773972       5.00000000
C       38.89743733      19.18116818       5.00000000
C       36.13983491      19.94200914       5.00000000
C       36.58302301      18.57257850       5.00000000
C       37.92159268      18.18873081       5.00000000
C       34.70962923      19.90856787       5.00000000
C       34.22770999      18.57818667       5.00000000
C       35.40641953      17.72491485       5.00000000
C       35.35904446      16.34592956       5.00000000
C       38.51646168       5.38529170       5.00000000
C       38.97068896       6.76718493       5.00000000
C       38.12218381       7.85599964       5.00000000
C       39.68679219       4.58934779       5.00000000
C       40.86551415       5.40003910       5.00000000
C       40.42084505       6.76967745       5.00000000
C       42.28183209       5.12710843       5.00000000
C       43.11271674       6.28509051       5.00000000
C       42.65196201       7.63354246       5.00000000
C       41.27946481       7.86513887       5.00000000
C       47.56730839      10.51385410       5.00000000
C       47.10492176      11.86189064       5.00000000
C       45.67818414      11.86562941       5.00000000
C       47.93447632      13.02070355       5.00000000
C       47.21528704      14.26945480       5.00000000
C       45.76964519      14.26176954       5.00000000
C       45.01354901      13.09547907       5.00000000
C       47.61787260      15.62974621       5.00000000
C       46.49182464      16.49278038       5.00000000
C       45.31824689      15.64885551       5.00000000
C       46.33767813      17.92535480       5.00000000
C       44.98498446      18.37442336       5.00000000
C       43.83341543      17.53236788       5.00000000
C       44.02087298      16.14735900       5.00000000
C       51.69921964      12.76771303       5.00000000
C       50.52823393      13.56241068       5.00000000
C       49.35096110      12.74943456       5.00000000
C       49.79677375      11.38062705       5.00000000
C       48.93961906      10.28391937       5.00000000
C       47.32243953      18.97844343       5.00000000
C       48.75208936      19.01250784       5.00000000
C       53.85862086      14.29167975       5.00000000
C       55.77181808      15.66090268       5.00000000
C       54.60242756      16.51812098       5.00000000
C       53.47104793      15.66069497       5.00000000
C       57.07245595      16.15836762       5.00000000
C       57.27275232      17.54524589       5.00000000
C       56.12667251      18.39706373       5.00000000
C       54.76978287      17.95526501       5.00000000
C       53.78836305      19.01811600       5.00000000
C       52.36919438      19.04532598       5.00000000
C       62.66927605      20.52816617       5.00000000
H       40.81077240      20.52712762       5.00000000
H       43.10714194      19.75673201       5.00000000
H       22.60812504       3.83660751       5.00000000
H       21.16302597       3.80441250       5.00000000
H       20.45508339      10.47168902       5.00000000
H       19.26691495       9.64874283       5.00000000
H       58.01472464      19.77189482       5.00000000
H       32.26314212      14.31639721       5.00000000
H       33.70859456      14.34859223       5.00000000
H       34.42346971       7.68173113       5.00000000
H       35.61143568       8.50530044       5.00000000
H       60.33409334      20.52837388       5.00000000
H       40.35712154      19.15977408       5.00000000
H       44.99147420       7.66677603       5.00000000
H       43.82154287       8.50716983       5.00000000
H       46.39841835       9.63918818       5.00000000
H       45.22826863      10.47916657       5.00000000
H       42.65419784      18.38937847       5.00000000
H       58.46208954      18.39830999       5.00000000
H       60.78152573      19.15458133       5.00000000
H        5.48889054       0.01557823       5.00000000
H        6.23044310       2.18261446       5.00000000
H       39.68878506       3.50759521       5.00000000
H       37.76691273       2.14875777       5.00000000
H       31.71799632      20.75997029       5.00000000
H       10.94978915       4.99728982       5.00000000
H       14.00541924       9.27590376       5.00000000
H       16.35864852       9.28649696       5.00000000
H       18.59713124       2.38845486       5.00000000
H       16.68282985       1.01175438       5.00000000
H       11.70387563       2.67862544       5.00000000
H       36.27437400      15.76164193       5.00000000
H       38.18743249      17.13564218       5.00000000
H       38.52094878       8.86588464       5.00000000
H       40.87838671       8.87440074       5.00000000
H       43.92862056      13.14678339       5.00000000
H       43.17392668      15.46731716       5.00000000
H       49.38174111      18.13285688       5.00000000
H       48.64644999      15.96395126       5.00000000
H       50.52348154      14.64395555       5.00000000
H       52.44330485      15.99822338       5.00000000
H       22.57865487      15.47417158       5.00000000
H       27.60477092      17.11196327       5.00000000
H       29.61692214      15.68063511       5.00000000
H       33.08242329       5.02470751       5.00000000
H       32.29528463       2.68257193       5.00000000
H       27.26270844       1.04291085       5.00000000
H       25.25422597       2.47382359       5.00000000
H       21.79501812      13.12995890       5.00000000
H       51.73703621      18.16754441       5.00000000
Tv     35.3377 0.0 0.0
Tv     28.588799842123578 20.770978909935728 0.0

